powerfactory/powerfactory-converter/src/test/resources/robustness.xiidm
<?xml version="1.0" encoding="UTF-8"?>
<iidm:network xmlns:iidm="http://www.powsybl.org/schema/iidm/1_18" id="robustness" caseDate="2021-01-01T10:00:00.000+02:00" forecastDistance="0" sourceFormat="POWER-FACTORY" minimumValidationLevel="STEADY_STATE_HYPOTHESIS">
    <iidm:substation id="S3">
        <iidm:voltageLevel id="VL3" nominalV="220.0" topologyKind="NODE_BREAKER">
            <iidm:nodeBreakerTopology>
                <iidm:busbarSection id="VL3_Busbar-A" node="0"/>
                <iidm:switch id="VL3_Switch" kind="BREAKER" open="false" node1="0" node2="1"/>
            </iidm:nodeBreakerTopology>
        </iidm:voltageLevel>
    </iidm:substation>
    <iidm:substation id="S4">
        <iidm:voltageLevel id="VL4" nominalV="220.0" topologyKind="NODE_BREAKER">
            <iidm:nodeBreakerTopology>
                <iidm:busbarSection id="VL4_Busbar-B" node="0"/>
                <iidm:switch id="VL4_Switch" kind="BREAKER" open="false" node1="0" node2="1"/>
                <iidm:internalConnection node1="0" node2="2"/>
                <iidm:internalConnection node1="0" node2="3"/>
                <iidm:internalConnection node1="0" node2="4"/>
                <iidm:internalConnection node1="0" node2="5"/>
                <iidm:internalConnection node1="0" node2="6"/>
                <iidm:internalConnection node1="0" node2="7"/>
                <iidm:internalConnection node1="0" node2="8"/>
                <iidm:internalConnection node1="0" node2="9"/>
            </iidm:nodeBreakerTopology>
            <iidm:generator id="sym_B_1" energySource="OTHER" minP="0.0" maxP="250.0" targetP="25.0" localTargetV="224.399995803833" localTargetQ="10.0" node="2">
                <iidm:minMaxReactiveLimits minQ="-110.0" maxQ="120.00000762939453"/>
                <iidm:voltageRegulation mode="VOLTAGE" regulating="true"/>
            </iidm:generator>
            <iidm:load id="lod_30_1" loadType="UNDEFINED" p0="10.0" q0="5.0" node="3"/>
            <iidm:load id="lod_31_1" loadType="UNDEFINED" p0="10.0" q0="11.180339887498949" node="4"/>
            <iidm:load id="lod_32_1" loadType="UNDEFINED" p0="14.142135623730951" q0="5.0" node="5"/>
            <iidm:load id="lod_33_1" loadType="UNDEFINED" p0="10.0" q0="2.0305856083402913" node="6"/>
            <iidm:load id="lod_34_1" loadType="UNDEFINED" p0="24.6234385758637" q0="5.0" node="7"/>
            <iidm:load id="lod_35_1" loadType="UNDEFINED" p0="14.700000286102295" q0="2.984960902355749" node="8"/>
            <iidm:load id="lod_36_1" loadType="UNDEFINED" p0="14.700000286102295" q0="2.984960902355749" node="9"/>
        </iidm:voltageLevel>
    </iidm:substation>
    <iidm:line id="lne_A_B_1" r="3.561228036880493" x="11.731100082397461" b1="4.1272838592529294E-5" b2="4.1272838592529294E-5" voltageLevelId1="VL3" node1="1" voltageLevelId2="VL4" node2="1"/>
</iidm:network>
